<?xml version="1.0" encoding="UTF-8"?>

<!-- generated on Mon 10 Jul 2023 03:15:46 AM UTC by Eclipse SUMO GUI Version 1.8.0
-->

<configuration xmlns:xsi="http://www.w3.org/2001/XMLSchema-instance" xsi:noNamespaceSchemaLocation="http://sumo.dlr.de/xsd/sumoConfiguration.xsd">

    <input>
        <net-file value="autobahn.net.xml"/>
        <route-files value="autobahn.rou.xml"/>
    </input>

</configuration>
