<?xml version="1.0" encoding="UTF-8"?>

<!-- generated on Mon 10 Jul 2023 03:06:34 AM UTC by Eclipse SUMO netedit Version 1.8.0
<configuration xmlns:xsi="http://www.w3.org/2001/XMLSchema-instance" xsi:noNamespaceSchemaLocation="http://sumo.dlr.de/xsd/netconvertConfiguration.xsd">

    <output>
        <output-file value="/home/plexe/liamguan/autonomous-vehicle/sumo_tutorial/Autobahn/autobahn.net.xml"/>
    </output>

    <processing>
        <offset.disable-normalization value="true"/>
    </processing>

    <junctions>
        <no-turnarounds value="true"/>
    </junctions>

    <report>
        <aggregate-warnings value="5"/>
    </report>

</configuration>
-->

<net version="1.6" junctionCornerDetail="5" limitTurnSpeed="5.50" xmlns:xsi="http://www.w3.org/2001/XMLSchema-instance" xsi:noNamespaceSchemaLocation="http://sumo.dlr.de/xsd/net_file.xsd">

    <location netOffset="0.00,0.00" convBoundary="-103.88,-17.52,400.00,400.00" origBoundary="10000000000.00,10000000000.00,-10000000000.00,-10000000000.00" projParameter="!"/>

    <edge id=":gneJ2_0" function="internal">
        <lane id=":gneJ2_0_0" index="0" speed="13.89" length="4.10" shape="-41.94,5.86 -40.65,6.49 -39.75,6.90 -38.90,7.39 -37.78,8.27"/>
        <lane id=":gneJ2_0_1" index="1" speed="13.89" length="4.10" shape="-43.42,8.70 -42.32,9.22 -41.55,9.55 -40.82,9.96 -39.86,10.70"/>
        <lane id=":gneJ2_0_2" index="2" speed="13.89" length="4.10" shape="-44.91,11.53 -44.00,11.96 -43.35,12.21 -42.74,12.53 -41.95,13.13"/>
    </edge>
    <edge id=":gneJ3_0" function="internal">
        <lane id=":gneJ3_0_0" index="0" speed="13.89" length="3.37" shape="365.21,353.93 367.78,356.46"/>
        <lane id=":gneJ3_0_1" index="1" speed="13.89" length="3.37" shape="363.13,356.36 365.52,358.73"/>
        <lane id=":gneJ3_0_2" index="2" speed="13.89" length="3.37" shape="361.04,358.79 363.25,360.99"/>
    </edge>

    <edge id="entry" from="gneJ0" to="gneJ2" priority="-1">
        <lane id="entry_0" index="0" speed="13.89" length="65.72" shape="-100.17,-24.61 -41.94,5.86"/>
        <lane id="entry_1" index="1" speed="13.89" length="65.72" shape="-101.66,-21.77 -43.42,8.70"/>
        <lane id="entry_2" index="2" speed="13.89" length="65.72" shape="-103.14,-18.94 -44.91,11.53"/>
    </edge>
    <edge id="exit" from="gneJ3" to="gneJ1" priority="-1">
        <lane id="exit_0" index="0" speed="13.89" length="53.57" shape="367.78,356.46 405.66,394.34"/>
        <lane id="exit_1" index="1" speed="13.89" length="53.57" shape="365.52,358.73 403.39,396.61"/>
        <lane id="exit_2" index="2" speed="13.89" length="53.57" shape="363.25,360.99 401.13,398.87"/>
    </edge>
    <edge id="longEdge" from="gneJ2" to="gneJ3" priority="-1">
        <lane id="longEdge_0" index="0" speed="13.89" length="530.92" shape="-37.78,8.27 365.21,353.93"/>
        <lane id="longEdge_1" index="1" speed="13.89" length="530.92" shape="-39.86,10.70 363.13,356.36"/>
        <lane id="longEdge_2" index="2" speed="13.89" length="530.92" shape="-41.95,13.13 361.04,358.79"/>
    </edge>

    <junction id="gneJ0" type="dead_end" x="-103.88" y="-17.52" incLanes="" intLanes="" shape="-103.88,-17.52 -99.43,-26.03"/>
    <junction id="gneJ1" type="dead_end" x="400.00" y="400.00" incLanes="exit_0 exit_1 exit_2" intLanes="" shape="406.79,393.21 400.00,400.00"/>
    <junction id="gneJ2" type="priority" x="-42.99" y="14.34" incLanes="entry_0 entry_1 entry_2" intLanes=":gneJ2_0_0 :gneJ2_0_1 :gneJ2_0_2" shape="-42.99,14.34 -36.74,7.05 -38.26,5.90 -38.85,5.57 -39.46,5.28 -40.21,4.94 -41.20,4.44 -45.65,12.95 -44.62,13.40 -44.25,13.54 -43.89,13.70 -43.49,13.95">
        <request index="0" response="000" foes="000" cont="0"/>
        <request index="1" response="000" foes="000" cont="0"/>
        <request index="2" response="000" foes="000" cont="0"/>
    </junction>
    <junction id="gneJ3" type="priority" x="360.00" y="360.00" incLanes="longEdge_0 longEdge_1 longEdge_2" intLanes=":gneJ3_0_0 :gneJ3_0_1 :gneJ3_0_2" shape="362.12,362.12 368.91,355.33 366.25,352.71 360.00,360.00">
        <request index="0" response="000" foes="000" cont="0"/>
        <request index="1" response="000" foes="000" cont="0"/>
        <request index="2" response="000" foes="000" cont="0"/>
    </junction>

    <connection from="entry" to="longEdge" fromLane="0" toLane="0" via=":gneJ2_0_0" dir="s" state="M"/>
    <connection from="entry" to="longEdge" fromLane="1" toLane="1" via=":gneJ2_0_1" dir="s" state="M"/>
    <connection from="entry" to="longEdge" fromLane="2" toLane="2" via=":gneJ2_0_2" dir="s" state="M"/>
    <connection from="longEdge" to="exit" fromLane="0" toLane="0" via=":gneJ3_0_0" dir="s" state="M"/>
    <connection from="longEdge" to="exit" fromLane="1" toLane="1" via=":gneJ3_0_1" dir="s" state="M"/>
    <connection from="longEdge" to="exit" fromLane="2" toLane="2" via=":gneJ3_0_2" dir="s" state="M"/>

    <connection from=":gneJ2_0" to="longEdge" fromLane="0" toLane="0" dir="s" state="M"/>
    <connection from=":gneJ2_0" to="longEdge" fromLane="1" toLane="1" dir="s" state="M"/>
    <connection from=":gneJ2_0" to="longEdge" fromLane="2" toLane="2" dir="s" state="M"/>
    <connection from=":gneJ3_0" to="exit" fromLane="0" toLane="0" dir="s" state="M"/>
    <connection from=":gneJ3_0" to="exit" fromLane="1" toLane="1" dir="s" state="M"/>
    <connection from=":gneJ3_0" to="exit" fromLane="2" toLane="2" dir="s" state="M"/>

</net>
