<configuration>
    <input>
        <net-file value="double.net.xml" />
        <route-files value="double.rou.xml" />
    </input>

    <time>
	<begin value="0" />
	<end value="1000" />
	<step-length value="0.1" />
    </time>
</configuration>
