<?xml version="1.0" encoding="UTF-8"?>

<routes>
   <vType id="car" type="passenger" length="5" accel="3.5" decel="2.2" sigma="1.0"/>
   <flow id="carflow" type="car" begin="5" end="20" number="5" from="edge1" to="edge5" />
</routes>
